LTspice 24.0.12 for Windows
Circuit: * E:\Documents\physics_driven_learning\lispice\single_edge.asc
Start Time: Wed Jun 19 00:34:31 2024
solver = Normal
Maximum thread count: 8
tnom = 27
temp = 27
method = modified trap
Direct Newton iteration for .op point succeeded.
Total elapsed time: 0.158 seconds.

